.MODEL MY_NMOS NMOS (LEVEL=1 VTO=2.1)
.MODEL MY_PMOS PMOS (LEVEL=1 VTO=-2.0)
.MODEL MY_PMOS1 PMOS (LEVEL=1 VTO=-0.2  RDS=1E+06RD=0.1 RS=10E-3 RG=0.5)
.MODEL MY_NMOS1 NMOS (LEVEL=1 VTO=0 )